LTspice 24.0.9 for Windows
Circuit: * C:\Users\holam\OneDrive - Sociedade Visconde de São Leopoldo\Área de Trabalho\otimizacao-cmos-unisantos\CMOS class AB Output STAGES.asc
Start Time: Fri Jul 25 16:55:17 2025
solver = Normal
Maximum thread count: 2
tnom = 27
temp = 27
method = modified trap
WARNING: Node VDD is floating.
WARNING: Node IN is floating.

Instance "m8": Length shorter than recommended for a level 1 MOSFET.
Instance "m8": Width narrower than recommended for a level 1 MOSFET.
Instance "m2": Length shorter than recommended for a level 1 MOSFET.
Instance "m2": Width narrower than recommended for a level 1 MOSFET.
Instance "m6": Length shorter than recommended for a level 1 MOSFET.
Instance "m6": Width narrower than recommended for a level 1 MOSFET.
Instance "m3": Length shorter than recommended for a level 1 MOSFET.
Instance "m3": Width narrower than recommended for a level 1 MOSFET.
Direct Newton iteration for .op point succeeded.
Total elapsed time: 0.214 seconds.

